Version 4
SHEET 1 1904 680
WIRE 64 64 -48 64
WIRE 240 64 64 64
WIRE 384 64 240 64
WIRE 448 64 384 64
WIRE 688 64 544 64
WIRE 944 64 688 64
WIRE 1024 64 944 64
WIRE 1136 64 1024 64
WIRE 1584 64 1392 64
WIRE 1680 64 1584 64
WIRE 1728 64 1680 64
WIRE 1792 64 1728 64
WIRE 1584 80 1584 64
WIRE 1792 80 1792 64
WIRE 944 96 944 64
WIRE 1680 96 1680 64
WIRE 1024 112 1024 64
WIRE 528 128 528 112
WIRE -48 144 -48 128
WIRE -48 144 -176 144
WIRE 64 160 64 128
WIRE 112 160 64 160
WIRE 944 176 944 160
WIRE 1680 176 1680 160
WIRE 1792 176 1792 160
WIRE -176 192 -176 144
WIRE 1264 192 1264 160
WIRE 1584 192 1584 160
WIRE 1584 192 1264 192
WIRE -48 208 -48 144
WIRE 64 208 64 160
WIRE 1584 208 1584 192
WIRE 528 240 528 208
WIRE 496 272 416 272
WIRE 624 272 560 272
WIRE 416 304 416 272
WIRE 1584 304 1584 288
WIRE -176 336 -176 272
WIRE 112 336 112 160
WIRE 112 336 -176 336
WIRE 512 400 512 304
WIRE 1728 400 1728 64
WIRE 1728 400 512 400
WIRE 240 448 240 320
WIRE 544 448 544 304
WIRE 544 448 240 448
FLAG -48 272 0
FLAG 64 272 0
FLAG 1024 176 0
FLAG 1792 64 OUT
FLAG 1584 304 0
FLAG 1792 176 0
FLAG 1680 176 0
FLAG 624 352 0
FLAG 240 528 0
FLAG 944 176 0
FLAG 384 64 RECT
FLAG 688 64 PREREG
FLAG 416 384 0
SYMBOL voltage -176 176 R0
WINDOW 123 0 0 Left 2
WINDOW 39 0 0 Left 2
WINDOW 3 -332 80 Left 2
SYMATTR InstName V1
SYMATTR Value SINE(0 12 50 0 0 0 10)
SYMBOL schottky -32 128 R180
WINDOW 0 24 64 Left 2
WINDOW 3 24 0 Left 2
SYMATTR InstName D1
SYMATTR Value B520C
SYMATTR Description Diode
SYMATTR Type diode
SYMBOL cap 1008 112 R0
SYMATTR InstName C1
SYMATTR Value 44000µ
SYMATTR SpiceLine Rser=0.021
SYMBOL nmos 448 112 R270
SYMATTR InstName M1
SYMATTR Value BSZ900N15NS3
SYMBOL PowerProducts\\LT1083 1264 64 R0
SYMATTR InstName U1
SYMBOL RES 1568 64 R0
SYMATTR InstName R1
SYMATTR Value 121
SYMBOL RES 1568 192 R0
SYMATTR InstName R2
SYMATTR Value 365
SYMBOL RES 1776 64 R0
SYMATTR InstName Rload1
SYMATTR Value 1.5
SYMBOL cap 1664 96 R0
SYMATTR InstName C2
SYMATTR Value 10µ
SYMBOL voltage 624 256 R0
WINDOW 123 0 0 Left 2
WINDOW 39 0 0 Left 2
SYMATTR InstName V2
SYMATTR Value 22
SYMBOL diode 224 64 R0
WINDOW 0 -39 28 Left 2
WINDOW 3 51 31 Left 2
SYMATTR InstName D5
SYMATTR Value 1N914
SYMBOL res 512 112 R0
SYMATTR InstName R3
SYMATTR Value 10k
SYMBOL Opamps\\LT1022 592 272 M270
SYMATTR InstName U2
SYMBOL res 224 432 R0
SYMATTR InstName R4
SYMATTR Value 1000
SYMBOL diode 224 128 R0
WINDOW 0 -38 30 Left 2
WINDOW 3 47 32 Left 2
SYMATTR InstName D6
SYMATTR Value 1N914
SYMBOL diode 224 192 R0
WINDOW 0 -36 31 Left 2
WINDOW 3 37 30 Left 2
SYMATTR InstName D7
SYMATTR Value 1N914
SYMBOL diode 224 256 R0
WINDOW 0 -36 31 Left 2
WINDOW 3 37 30 Left 2
SYMATTR InstName D8
SYMATTR Value 1N914
SYMBOL cap 928 96 R0
SYMATTR InstName C3
SYMATTR Value 10µ
SYMATTR SpiceLine Rser=0.002
SYMBOL schottky 80 128 R180
WINDOW 0 24 64 Left 2
WINDOW 3 24 0 Left 2
SYMATTR InstName D2
SYMATTR Value B520C
SYMATTR Description Diode
SYMATTR Type diode
SYMBOL schottky 80 272 R180
WINDOW 0 24 64 Left 2
WINDOW 3 24 0 Left 2
SYMATTR InstName D3
SYMATTR Value B520C
SYMATTR Description Diode
SYMATTR Type diode
SYMBOL schottky -32 272 R180
WINDOW 0 24 64 Left 2
WINDOW 3 24 0 Left 2
SYMATTR InstName D4
SYMATTR Value B520C
SYMATTR Description Diode
SYMATTR Type diode
SYMBOL voltage 416 400 R180
WINDOW 123 0 0 Left 2
WINDOW 39 0 0 Left 2
SYMATTR InstName V3
SYMATTR Value 3
TEXT 1720 256 Left 2 !.tran 1
