Version 4
SHEET 1 1952 836
WIRE 560 -368 -192 -368
WIRE -608 -256 -672 -256
WIRE -480 -256 -528 -256
WIRE -416 -256 -480 -256
WIRE -192 -208 -192 -368
WIRE -672 -144 -672 -176
WIRE -416 -128 -416 -176
WIRE -192 -96 -192 -128
WIRE 560 -80 560 -368
WIRE -464 64 -464 16
WIRE 560 64 560 0
WIRE 128 112 128 80
WIRE -224 128 -272 128
WIRE -96 128 -96 32
WIRE -96 128 -144 128
WIRE 96 128 -96 128
WIRE 192 144 160 144
WIRE 272 144 192 144
WIRE 352 144 272 144
WIRE 512 144 432 144
WIRE -272 160 -272 128
WIRE 96 160 48 160
WIRE -96 176 -96 128
WIRE -464 192 -464 144
WIRE -416 192 -464 192
WIRE 272 192 272 144
WIRE 128 208 128 176
WIRE 192 208 192 144
WIRE -416 224 -416 192
WIRE -464 272 -464 192
WIRE -272 272 -272 240
WIRE -96 272 -96 240
WIRE 192 336 192 272
WIRE 272 336 192 336
WIRE 560 368 560 160
WIRE 560 368 448 368
WIRE -464 400 -464 352
WIRE 48 480 48 160
WIRE 192 480 192 336
WIRE 192 480 48 480
WIRE 448 480 448 448
WIRE 448 480 192 480
WIRE 448 496 448 480
WIRE 992 512 992 432
WIRE 992 512 832 512
WIRE 992 528 992 512
WIRE 1152 544 1152 432
WIRE 1184 544 1152 544
WIRE 1504 544 1264 544
WIRE 1504 560 1504 544
WIRE 1616 560 1552 560
WIRE 880 576 880 560
WIRE 1552 576 1552 560
WIRE 560 592 560 368
WIRE 832 592 832 512
WIRE 848 592 832 592
WIRE 944 608 912 608
WIRE 1152 608 1152 544
WIRE 448 624 448 576
WIRE 848 624 800 624
WIRE 1552 640 1552 624
WIRE 1584 640 1552 640
WIRE 1616 640 1584 640
WIRE 880 656 880 640
WIRE 992 656 992 624
WIRE 1504 656 1504 640
WIRE 1584 672 1584 640
WIRE 1152 736 1152 672
WIRE 1296 736 1152 736
WIRE 1504 736 1296 736
WIRE 992 768 992 736
WIRE 1296 816 1296 736
FLAG -272 272 0
FLAG -416 224 0
FLAG -464 16 V+
FLAG -464 400 V-
FLAG 128 80 V-
FLAG 128 208 V+
FLAG -192 -96 0
FLAG 560 592 OUT
IOPIN 560 592 Out
FLAG 1152 432 OUT
IOPIN 1152 432 Out
FLAG 1296 816 0
FLAG -96 272 0
FLAG 1584 672 0
FLAG 448 624 0
FLAG -96 32 VREF
IOPIN -96 32 In
FLAG 800 624 VREF
IOPIN 800 624 In
FLAG 992 432 OUT
IOPIN 992 432 Out
FLAG 992 768 0
FLAG 880 560 V-
FLAG 880 656 V+
FLAG -672 -144 0
FLAG -480 -192 0
FLAG -416 -128 0
SYMBOL Opamps\\LT1363 128 208 M180
SYMATTR InstName U1
SYMBOL voltage -272 144 R0
WINDOW 123 0 0 Left 2
WINDOW 39 0 0 Left 2
SYMATTR InstName V1
SYMATTR Value 2.5
SYMBOL res -128 112 R90
WINDOW 0 0 56 VBottom 2
WINDOW 3 32 56 VTop 2
SYMATTR InstName R1
SYMATTR Value 10k
SYMBOL voltage -464 48 R0
WINDOW 123 0 0 Left 2
WINDOW 39 0 0 Left 2
SYMATTR InstName V2
SYMATTR Value 24
SYMBOL voltage -464 256 R0
WINDOW 123 0 0 Left 2
WINDOW 39 0 0 Left 2
SYMATTR InstName V3
SYMATTR Value 3
SYMBOL nmos 512 64 R0
SYMATTR InstName M1
SYMATTR Value BSZ900N15NS3
SYMBOL voltage -192 -224 R0
WINDOW 3 39 85 Left 2
WINDOW 123 39 113 Left 2
WINDOW 39 0 0 Left 2
SYMATTR Value 6
SYMATTR Value2 AC 0.1
SYMATTR InstName V4
SYMBOL res 256 176 R0
SYMATTR InstName R3
SYMATTR Value 5k
SYMBOL cap 256 272 R0
SYMATTR InstName C1
SYMATTR Value 10p
SYMBOL cap -112 176 R0
SYMATTR InstName C2
SYMATTR Value 10n
SYMBOL res 448 128 R90
WINDOW 0 0 56 VBottom 2
WINDOW 3 39 58 VTop 2
SYMATTR InstName R4
SYMATTR Value 5
SYMBOL cap 1136 608 R0
SYMATTR InstName C3
SYMATTR Value 2.2µ
SYMBOL res 544 -96 R0
SYMATTR InstName R5
SYMATTR Value 0.04
SYMBOL cap 176 208 R0
SYMATTR InstName C4
SYMATTR Value 1p
SYMBOL voltage 1616 544 R0
WINDOW 123 0 0 Left 2
WINDOW 39 0 0 Left 2
SYMATTR InstName V5
SYMATTR Value PULSE(0 5 5m 0 0 5m)
SYMBOL res 1488 640 R0
SYMATTR InstName R6
SYMATTR Value 3
SYMBOL sw 1504 656 R180
SYMATTR InstName S2
SYMATTR Value MYSW
SYMBOL res 1280 528 R90
WINDOW 0 0 56 VBottom 2
WINDOW 3 32 56 VTop 2
SYMATTR InstName R7
SYMATTR Value 0.001
SYMBOL res 432 352 R0
SYMATTR InstName R8
SYMATTR Value 5k
SYMBOL res 432 480 R0
SYMATTR InstName R9
SYMATTR Value 5k
SYMBOL Opamps\\LT1363 880 672 M180
SYMATTR InstName U2
SYMBOL nmos 944 528 R0
SYMATTR InstName M2
SYMBOL res 976 640 R0
SYMATTR InstName R10
SYMATTR Value 30
SYMBOL voltage -672 -272 R0
WINDOW 3 -38 206 Left 2
WINDOW 123 39 113 Left 2
WINDOW 39 0 0 Left 2
WINDOW 0 24 26 Left 2
SYMATTR Value PULSE(0 10 0 0 0 0.000005 0.00002)
SYMATTR InstName V6
SYMBOL ind -624 -240 R270
WINDOW 0 32 56 VTop 2
WINDOW 3 5 56 VBottom 2
SYMATTR InstName L1
SYMATTR Value 150µ
SYMATTR SpiceLine Rser=0.11
SYMBOL cap -496 -256 R0
SYMATTR InstName C5
SYMATTR Value 22000µ
SYMATTR SpiceLine Rser=0.021
SYMBOL res -432 -272 R0
SYMATTR InstName R2
SYMATTR Value 30
TEXT -224 512 Left 2 !.tran 0.05 startup uic
TEXT -296 584 Left 2 !;ac oct 1 0.00001MEG 100MEG
TEXT -344 656 Left 2 !.model MYSW SW(Ron=0.01 Roff=1000 Vt=.5 Vh=0)
