Version 4
SHEET 1 2740 1460
WIRE -1536 -416 -1536 -464
WIRE -1216 -368 -1280 -368
WIRE -1088 -368 -1136 -368
WIRE -1040 -368 -1088 -368
WIRE -928 -368 -960 -368
WIRE -848 -368 -928 -368
WIRE -768 -368 -848 -368
WIRE -704 -368 -768 -368
WIRE -672 -368 -704 -368
WIRE -1536 -288 -1536 -336
WIRE -1488 -288 -1536 -288
WIRE -1088 -272 -1088 -304
WIRE -928 -272 -928 -304
WIRE -848 -272 -848 -304
WIRE -768 -272 -768 -304
WIRE -704 -272 -704 -288
WIRE 1408 -272 1408 -336
WIRE -1488 -256 -1488 -288
WIRE -1280 -256 -1280 -288
WIRE 1264 -224 1264 -240
WIRE -1536 -208 -1536 -288
WIRE 1232 -208 1168 -208
WIRE 1360 -192 1296 -192
WIRE 1232 -176 1184 -176
WIRE 192 -144 112 -144
WIRE 320 -144 288 -144
WIRE 1264 -144 1264 -160
WIRE 1408 -144 1408 -176
WIRE -1536 -80 -1536 -128
WIRE 272 -32 272 -96
WIRE -1088 0 -1120 0
WIRE -960 0 -1024 0
WIRE 1408 0 1408 -64
WIRE -960 32 -960 0
WIRE 1088 96 1024 96
WIRE 1136 96 1088 96
WIRE 1216 96 1136 96
WIRE 1376 96 1296 96
WIRE 1536 96 1376 96
WIRE 1696 96 1536 96
WIRE 1920 96 1696 96
WIRE -1296 112 -1360 112
WIRE -1120 112 -1120 0
WIRE -1120 112 -1216 112
WIRE -1072 112 -1120 112
WIRE 128 112 128 80
WIRE -960 128 -960 112
WIRE -960 128 -1008 128
WIRE -880 128 -960 128
WIRE -688 128 -736 128
WIRE -176 128 -224 128
WIRE -48 128 -48 32
WIRE -48 128 -96 128
WIRE 96 128 -48 128
WIRE -1072 144 -1184 144
WIRE 192 144 160 144
WIRE 272 144 272 48
WIRE 272 144 192 144
WIRE 96 160 64 160
WIRE 1536 160 1536 96
WIRE 1696 160 1696 96
WIRE 1808 160 1744 160
WIRE -224 176 -224 128
WIRE -48 176 -48 128
WIRE 1744 176 1744 160
WIRE -1184 192 -1184 144
WIRE 272 192 272 144
WIRE 128 208 128 176
WIRE 192 208 192 144
WIRE 1744 240 1744 224
WIRE 1776 240 1744 240
WIRE 1808 240 1776 240
WIRE -48 272 -48 240
WIRE 1136 272 1136 176
WIRE 1152 272 1136 272
WIRE 1376 272 1376 176
WIRE 1376 272 1344 272
WIRE 1696 272 1696 240
WIRE 1776 272 1776 240
WIRE -224 304 -224 256
WIRE -1184 320 -1184 272
WIRE 1088 320 1088 96
WIRE 1152 320 1088 320
WIRE 1376 320 1344 320
WIRE 192 336 192 272
WIRE 272 336 192 336
WIRE 448 368 384 368
WIRE 592 368 448 368
WIRE 384 384 384 368
WIRE 1536 384 1536 224
WIRE 1696 384 1696 352
WIRE 1008 448 944 448
WIRE 1088 448 1008 448
WIRE 1152 448 1088 448
WIRE 64 480 64 160
WIRE 192 480 192 336
WIRE 192 480 64 480
WIRE 384 480 384 448
WIRE 384 480 192 480
WIRE 448 480 448 448
WIRE 448 480 384 480
WIRE 448 496 448 480
WIRE 1088 608 1088 528
WIRE 448 624 448 576
FLAG -224 304 0
FLAG -1488 -256 0
FLAG -1536 -464 V+
FLAG -1536 -80 V-
FLAG 128 80 V-
FLAG 128 208 V+
FLAG -48 272 0
FLAG 1776 272 0
FLAG 448 624 0
FLAG -48 32 VREF
IOPIN -48 32 In
FLAG 1184 -176 VREF
IOPIN 1184 -176 In
FLAG 1408 0 0
FLAG 1264 -240 V-
FLAG 1264 -144 V+
FLAG -1280 -256 0
FLAG -1088 -272 0
FLAG 1088 608 0
FLAG 1376 320 0
FLAG -704 -272 0
FLAG -848 -272 0
FLAG -768 -272 0
FLAG -928 -272 0
FLAG -672 -368 VIN
IOPIN -672 -368 In
FLAG 112 -144 VIN
IOPIN 112 -144 In
FLAG 944 448 CSENSE
FLAG -1184 320 0
FLAG -1040 160 V-
FLAG -1040 96 V+
FLAG -1360 112 CSENSE
FLAG -688 128 VREF
IOPIN -688 128 In
FLAG 320 -144 MOSOUT
IOPIN 320 -144 Out
FLAG 1408 -336 MOSOUT
IOPIN 1408 -336 Out
FLAG 1024 96 MOSOUT
IOPIN 1024 96 Out
FLAG 1168 -208 OUT
IOPIN 1168 -208 Out
FLAG 1920 96 OUT
IOPIN 1920 96 Out
FLAG 592 368 OUT
FLAG 1696 384 0
FLAG 1536 384 0
FLAG 960 304 V+
FLAG 2720 1440 0
FLAG -2336 -1488 0
FLAG 1008 512 0
SYMBOL Opamps\\LT1363 128 208 M180
SYMATTR InstName U1
SYMBOL voltage -224 160 R0
WINDOW 123 0 0 Left 2
WINDOW 39 0 0 Left 2
SYMATTR InstName V1
SYMATTR Value 2.5
SYMBOL res -80 112 R90
WINDOW 0 0 56 VBottom 2
WINDOW 3 32 56 VTop 2
SYMATTR InstName R1
SYMATTR Value 10k
SYMBOL voltage -1536 -432 R0
WINDOW 123 0 0 Left 2
WINDOW 39 0 0 Left 2
SYMATTR InstName V2
SYMATTR Value 24
SYMBOL voltage -1536 -224 R0
WINDOW 123 0 0 Left 2
WINDOW 39 0 0 Left 2
SYMATTR InstName V3
SYMATTR Value 3
SYMBOL nmos 192 -96 R270
SYMATTR InstName M1
SYMATTR Value BSZ900N15NS3
SYMBOL res 256 176 R0
SYMATTR InstName R3
SYMATTR Value 5k
SYMBOL cap 256 272 R0
SYMATTR InstName C1
SYMATTR Value 10p
SYMBOL cap -64 176 R0
SYMATTR InstName C2
SYMATTR Value 0
SYMBOL res 256 -48 R0
SYMATTR InstName R4
SYMATTR Value 0
SYMBOL cap 1520 160 R0
SYMATTR InstName C3
SYMATTR Value 2.2µ
SYMBOL res 1200 112 R270
WINDOW 0 49 54 VTop 2
WINDOW 3 -7 54 VBottom 2
SYMATTR InstName R5
SYMATTR Value 0.04
SYMBOL voltage 1808 144 R0
WINDOW 123 0 0 Left 2
WINDOW 39 0 0 Left 2
WINDOW 3 -3 123 Left 2
SYMATTR InstName V5
SYMATTR Value PULSE(0 5 10m 0 0 5m)
SYMBOL res 1680 256 R0
SYMATTR InstName R6
SYMATTR Value 2.5
SYMBOL sw 1696 256 R180
WINDOW 3 19 96 Left 2
SYMATTR InstName S2
SYMATTR Value MYSW
SYMBOL res 432 352 R0
SYMATTR InstName R8
SYMATTR Value 5k
SYMBOL res 432 480 R0
SYMATTR InstName R9
SYMATTR Value 5k
SYMBOL Opamps\\LT1363 1264 -128 M180
SYMATTR InstName U2
SYMBOL nmos 1360 -272 R0
SYMATTR InstName M2
SYMATTR Value IRLML6346
SYMBOL res 1392 -160 R0
SYMATTR InstName R10
SYMATTR Value 20
SYMBOL voltage -1280 -384 R0
WINDOW 3 -38 206 Left 2
WINDOW 123 39 113 Left 2
WINDOW 39 0 0 Left 2
WINDOW 0 24 26 Left 2
SYMATTR Value PULSE(0 15 0 0 0 0.000015 0.00002)
SYMATTR InstName V6
SYMBOL ind -1232 -352 R270
WINDOW 0 32 56 VTop 2
WINDOW 3 5 56 VBottom 2
SYMATTR InstName L1
SYMATTR Value 100µ
SYMATTR SpiceLine Rser=0.11
SYMBOL cap -1104 -368 R0
SYMATTR InstName C5
SYMATTR Value 1000µ
SYMATTR SpiceLine Rser=0.04
SYMBOL cap 368 384 R0
SYMATTR InstName C6
SYMATTR Value 10p
SYMBOL Opamps\\LT6106 1248 336 M0
SYMATTR InstName U3
SYMBOL res 1072 432 R0
SYMATTR InstName R12
SYMATTR Value 10k
SYMBOL cap -864 -368 R0
WINDOW 0 27 15 Left 2
WINDOW 3 29 51 Left 2
SYMATTR InstName C7
SYMATTR Value 10µ
SYMATTR SpiceLine Rser=0.005
SYMBOL res -720 -384 R0
SYMATTR InstName R13
SYMATTR Value 100k
SYMBOL cap -784 -368 R0
WINDOW 0 24 15 Left 2
WINDOW 3 24 50 Left 2
SYMATTR InstName C8
SYMATTR Value 10µ
SYMATTR SpiceLine Rser=0.005
SYMBOL ind -1056 -352 R270
WINDOW 0 32 56 VTop 2
WINDOW 3 5 56 VBottom 2
SYMATTR InstName L2
SYMATTR Value 5µ
SYMBOL cap -944 -368 R0
SYMATTR InstName C9
SYMATTR Value 22000µ
SYMATTR SpiceLine Rser=0.021
SYMBOL Opamps\\LT1365 -1040 64 R0
WINDOW 0 28 32 Left 2
SYMATTR InstName U4
SYMBOL voltage -1184 176 R0
WINDOW 123 0 0 Left 2
WINDOW 39 0 0 Left 2
SYMATTR InstName V7
SYMATTR Value 0.4
SYMBOL schottky -816 112 R90
WINDOW 0 0 32 VBottom 2
WINDOW 3 32 32 VTop 2
SYMATTR InstName D1
SYMATTR Value BAT54
SYMATTR Description Diode
SYMATTR Type diode
SYMBOL cap -1024 -16 R90
WINDOW 0 0 32 VBottom 2
WINDOW 3 32 32 VTop 2
SYMATTR InstName C10
SYMATTR Value 500p
SYMBOL res -944 128 R180
WINDOW 0 -40 93 Left 2
WINDOW 3 -29 36 Left 2
SYMATTR InstName R16
SYMATTR Value 10
SYMBOL cap 176 208 R0
SYMATTR InstName C4
SYMATTR Value 10p
SYMBOL res 1120 80 R0
SYMATTR InstName R11
SYMATTR Value 100
SYMBOL res 1360 80 R0
SYMATTR InstName R14
SYMATTR Value 500
SYMBOL res -720 112 R90
WINDOW 0 0 56 VBottom 2
WINDOW 3 32 56 VTop 2
SYMATTR InstName R18
SYMATTR Value 1k
SYMBOL res -1312 128 R270
WINDOW 0 32 56 VTop 2
WINDOW 3 0 56 VBottom 2
SYMATTR InstName R17
SYMATTR Value 20k
SYMBOL cap 992 448 R0
SYMATTR InstName C11
SYMATTR Value 10p
TEXT -224 512 Left 2 !.tran 0.02 startup uic
TEXT -296 584 Left 2 !;ac oct 1 0.00001MEG 100MEG
TEXT -344 656 Left 2 !.model MYSW SW(Ron=0.01 Roff=1MEG Vt=.5 Vh=0)
