Version 4
SHEET 1 1952 836
WIRE 128 -528 0 -528
WIRE 192 -528 128 -528
WIRE 368 -528 272 -528
WIRE 560 -528 368 -528
WIRE 128 -512 128 -528
WIRE 128 -352 128 -432
WIRE 144 -352 128 -352
WIRE 368 -352 368 -448
WIRE 368 -352 336 -352
WIRE 64 -304 0 -528
WIRE 144 -304 64 -304
WIRE 368 -304 336 -304
WIRE -864 -256 -928 -256
WIRE -736 -256 -784 -256
WIRE -688 -256 -736 -256
WIRE -576 -256 -608 -256
WIRE -496 -256 -576 -256
WIRE -416 -256 -496 -256
WIRE -352 -256 -416 -256
WIRE -320 -256 -352 -256
WIRE 80 -176 0 -176
WIRE 144 -176 80 -176
WIRE -736 -160 -736 -192
WIRE -576 -160 -576 -192
WIRE -496 -160 -496 -192
WIRE -416 -160 -416 -192
WIRE -352 -160 -352 -176
WIRE -928 -144 -928 -176
WIRE 80 -16 80 -96
WIRE -464 64 -464 16
WIRE 560 64 560 -528
WIRE -832 80 -928 80
WIRE 128 112 128 80
WIRE -912 128 -912 0
WIRE -224 128 -272 128
WIRE -96 128 -96 32
WIRE -96 128 -144 128
WIRE 96 128 -96 128
WIRE -1152 144 -1280 144
WIRE -992 144 -992 80
WIRE -992 144 -1072 144
WIRE -944 144 -992 144
WIRE 192 144 160 144
WIRE 272 144 192 144
WIRE 352 144 272 144
WIRE 512 144 432 144
WIRE -832 160 -880 160
WIRE -752 160 -832 160
WIRE -608 160 -688 160
WIRE 96 160 48 160
WIRE -944 176 -1056 176
WIRE -272 176 -272 128
WIRE -96 176 -96 128
WIRE 864 176 864 144
WIRE -464 192 -464 144
WIRE -416 192 -464 192
WIRE 272 192 272 144
WIRE 128 208 128 176
WIRE 192 208 192 144
WIRE -1056 224 -1056 176
WIRE -416 224 -416 192
WIRE -912 256 -912 192
WIRE -464 272 -464 192
WIRE -96 272 -96 240
WIRE -272 304 -272 256
WIRE 192 336 192 272
WIRE 272 336 192 336
WIRE -1056 352 -1056 304
WIRE 448 368 384 368
WIRE 560 368 560 160
WIRE 560 368 448 368
WIRE 384 384 384 368
WIRE -464 400 -464 352
WIRE 48 480 48 160
WIRE 192 480 192 336
WIRE 192 480 48 480
WIRE 384 480 384 448
WIRE 384 480 192 480
WIRE 448 480 448 448
WIRE 448 480 384 480
WIRE 448 496 448 480
WIRE 992 512 992 432
WIRE 992 512 832 512
WIRE 992 528 992 512
WIRE 1152 544 1152 432
WIRE 1184 544 1152 544
WIRE 1328 544 1264 544
WIRE 1504 544 1328 544
WIRE 1504 560 1504 544
WIRE 1616 560 1552 560
WIRE 880 576 880 560
WIRE 1552 576 1552 560
WIRE 560 592 560 368
WIRE 832 592 832 512
WIRE 848 592 832 592
WIRE 944 608 912 608
WIRE 1152 608 1152 544
WIRE 1328 608 1328 544
WIRE 448 624 448 576
WIRE 848 624 800 624
WIRE 1552 640 1552 624
WIRE 1584 640 1552 640
WIRE 1616 640 1584 640
WIRE 880 656 880 640
WIRE 992 656 992 624
WIRE 1504 656 1504 640
WIRE 1584 672 1584 640
WIRE 1152 736 1152 672
WIRE 1296 736 1152 736
WIRE 1328 736 1328 688
WIRE 1328 736 1296 736
WIRE 1504 736 1328 736
WIRE 992 768 992 736
WIRE 1296 816 1296 736
FLAG -272 304 0
FLAG -416 224 0
FLAG -464 16 V+
FLAG -464 400 V-
FLAG 128 80 V-
FLAG 128 208 V+
FLAG 864 176 0
FLAG 560 592 OUT
IOPIN 560 592 Out
FLAG 1152 432 OUT
IOPIN 1152 432 Out
FLAG 1296 816 0
FLAG -96 272 0
FLAG 1584 672 0
FLAG 448 624 0
FLAG -96 32 VREF
IOPIN -96 32 In
FLAG 800 624 VREF
IOPIN 800 624 In
FLAG 992 432 OUT
IOPIN 992 432 Out
FLAG 992 768 0
FLAG 880 560 V-
FLAG 880 656 V+
FLAG -928 -144 0
FLAG -736 -160 0
FLAG 80 -16 0
FLAG 368 -304 0
FLAG -352 -160 0
FLAG -496 -160 0
FLAG -416 -160 0
FLAG -576 -160 0
FLAG -320 -256 VIN
IOPIN -320 -256 In
FLAG 0 -528 VIN
IOPIN 0 -528 In
FLAG 0 -176 CSENSE
FLAG -1280 144 CSENSE
FLAG -1056 352 0
FLAG -608 160 VREF
IOPIN -608 160 In
FLAG -912 256 V-
FLAG -912 0 V+
SYMBOL Opamps\\LT1363 128 208 M180
SYMATTR InstName U1
SYMBOL voltage -272 160 R0
WINDOW 123 0 0 Left 2
WINDOW 39 0 0 Left 2
SYMATTR InstName V1
SYMATTR Value 5
SYMBOL res -128 112 R90
WINDOW 0 0 56 VBottom 2
WINDOW 3 32 56 VTop 2
SYMATTR InstName R1
SYMATTR Value 10k
SYMBOL voltage -464 48 R0
WINDOW 123 0 0 Left 2
WINDOW 39 0 0 Left 2
SYMATTR InstName V2
SYMATTR Value 24
SYMBOL voltage -464 256 R0
WINDOW 123 0 0 Left 2
WINDOW 39 0 0 Left 2
SYMATTR InstName V3
SYMATTR Value 3
SYMBOL nmos 512 64 R0
SYMATTR InstName M1
SYMATTR Value BSZ900N15NS3
SYMBOL voltage 864 48 R0
WINDOW 3 39 85 Left 2
WINDOW 123 39 113 Left 2
WINDOW 39 0 0 Left 2
SYMATTR Value 6
SYMATTR Value2 AC 0.1
SYMATTR InstName V4
SYMBOL res 256 176 R0
SYMATTR InstName R3
SYMATTR Value 5k
SYMBOL cap 256 272 R0
SYMATTR InstName C1
SYMATTR Value 10p
SYMBOL cap -112 176 R0
SYMATTR InstName C2
SYMATTR Value 1p
SYMBOL res 448 128 R90
WINDOW 0 0 56 VBottom 2
WINDOW 3 39 58 VTop 2
SYMATTR InstName R4
SYMATTR Value 0
SYMBOL cap 1136 608 R0
SYMATTR InstName C3
SYMATTR Value 2.2µ
SYMBOL res 176 -512 R270
WINDOW 0 49 54 VTop 2
WINDOW 3 -7 54 VBottom 2
SYMATTR InstName R5
SYMATTR Value 0.04
SYMBOL cap 176 208 R0
SYMATTR InstName C4
SYMATTR Value 1p
SYMBOL voltage 1616 544 R0
WINDOW 123 0 0 Left 2
WINDOW 39 0 0 Left 2
SYMATTR InstName V5
SYMATTR Value PULSE(0 5 10m 0 0 5m)
SYMBOL res 1488 640 R0
SYMATTR InstName R6
SYMATTR Value 2.5
SYMBOL sw 1504 656 R180
SYMATTR InstName S2
SYMATTR Value MYSW
SYMBOL res 1280 528 R90
WINDOW 0 0 56 VBottom 2
WINDOW 3 32 56 VTop 2
SYMATTR InstName R7
SYMATTR Value 0.001
SYMBOL res 432 352 R0
SYMATTR InstName R8
SYMATTR Value 5k
SYMBOL res 432 480 R0
SYMATTR InstName R9
SYMATTR Value 5k
SYMBOL Opamps\\LT1363 880 672 M180
SYMATTR InstName U2
SYMBOL nmos 944 528 R0
SYMATTR InstName M2
SYMATTR Value IRLML6346
SYMBOL res 976 640 R0
SYMATTR InstName R10
SYMATTR Value 20
SYMBOL voltage -928 -272 R0
WINDOW 3 -38 206 Left 2
WINDOW 123 39 113 Left 2
WINDOW 39 0 0 Left 2
WINDOW 0 24 26 Left 2
SYMATTR Value PULSE(0 15 0 0 0 0.000015 0.00002)
SYMATTR InstName V6
SYMBOL ind -880 -240 R270
WINDOW 0 32 56 VTop 2
WINDOW 3 5 56 VBottom 2
SYMATTR InstName L1
SYMATTR Value 100µ
SYMATTR SpiceLine Rser=0.11
SYMBOL cap -752 -256 R0
SYMATTR InstName C5
SYMATTR Value 1000µ
SYMATTR SpiceLine Rser=0.04
SYMBOL res 1312 592 R0
SYMATTR InstName R2
SYMATTR Value 100k
SYMBOL cap 368 384 R0
SYMATTR InstName C6
SYMATTR Value 10p
SYMBOL res 112 -528 R0
SYMATTR InstName R11
SYMATTR Value 100
SYMBOL Opamps\\LT6106 240 -288 M0
SYMATTR InstName U3
SYMBOL res 64 -192 R0
SYMATTR InstName R12
SYMATTR Value 1k
SYMBOL cap -512 -256 R0
WINDOW 0 27 15 Left 2
WINDOW 3 29 51 Left 2
SYMATTR InstName C7
SYMATTR Value 10µ
SYMATTR SpiceLine Rser=0.005
SYMBOL res -368 -272 R0
SYMATTR InstName R13
SYMATTR Value 100k
SYMBOL cap -432 -256 R0
WINDOW 0 24 15 Left 2
WINDOW 3 24 50 Left 2
SYMATTR InstName C8
SYMATTR Value 10µ
SYMATTR SpiceLine Rser=0.005
SYMBOL ind -704 -240 R270
WINDOW 0 32 56 VTop 2
WINDOW 3 5 56 VBottom 2
SYMATTR InstName L2
SYMATTR Value 5µ
SYMBOL cap -592 -256 R0
SYMATTR InstName C9
SYMATTR Value 22000µ
SYMATTR SpiceLine Rser=0.021
SYMBOL res 352 -544 R0
SYMATTR InstName R14
SYMATTR Value 100
SYMBOL Opamps\\LT1365 -912 96 R0
SYMATTR InstName U4
SYMBOL voltage -1056 208 R0
WINDOW 123 0 0 Left 2
WINDOW 39 0 0 Left 2
SYMATTR InstName V7
SYMATTR Value 0.5
SYMBOL schottky -688 144 R90
WINDOW 0 0 32 VBottom 2
WINDOW 3 32 32 VTop 2
SYMATTR InstName D1
SYMATTR Value 1N5818
SYMATTR Description Diode
SYMATTR Type diode
SYMBOL res -1056 128 R90
WINDOW 0 0 56 VBottom 2
WINDOW 3 32 56 VTop 2
SYMATTR InstName R15
SYMATTR Value 10k
SYMBOL cap -928 64 R90
WINDOW 0 0 32 VBottom 2
WINDOW 3 32 32 VTop 2
SYMATTR InstName C10
SYMATTR Value 500p
SYMBOL res -816 176 R180
WINDOW 0 36 76 Left 2
WINDOW 3 36 40 Left 2
SYMATTR InstName R16
SYMATTR Value 5k
TEXT -224 512 Left 2 !.tran 0.02 startup uic
TEXT -296 584 Left 2 !;ac oct 1 0.00001MEG 100MEG
TEXT -344 656 Left 2 !.model MYSW SW(Ron=0.01 Roff=1MEG Vt=.5 Vh=0)
