Version 4
SHEET 1 880 680
WIRE 192 -624 48 -624
WIRE 48 -592 48 -624
WIRE -784 -528 -848 -528
WIRE -736 -528 -784 -528
WIRE -576 -528 -656 -528
WIRE -416 -528 -576 -528
WIRE -416 -512 -416 -528
WIRE 192 -496 192 -624
WIRE 48 -480 48 -512
WIRE 48 -480 -16 -480
WIRE 48 -464 48 -480
WIRE -784 -432 -784 -528
WIRE -416 -416 -416 -432
WIRE -1168 -400 -1184 -400
WIRE -848 -400 -848 -528
WIRE -848 -400 -880 -400
WIRE -576 -336 -576 -448
WIRE 48 -336 48 -384
WIRE 192 -336 192 -416
WIRE -1168 -304 -1296 -304
WIRE -864 -304 -880 -304
WIRE -656 -304 -656 -336
WIRE -656 -304 -672 -304
WIRE -576 -288 -576 -336
WIRE -1296 -272 -1296 -304
WIRE -1168 -208 -1184 -208
WIRE -624 -208 -880 -208
WIRE -1296 -160 -1296 -192
WIRE -576 -128 -576 -192
WIRE -416 -128 -576 -128
WIRE -288 -128 -416 -128
WIRE -1168 -112 -1216 -112
WIRE -848 -112 -880 -112
WIRE -800 -112 -848 -112
WIRE -688 -112 -720 -112
WIRE -416 -112 -416 -128
WIRE -288 -112 -288 -128
WIRE -848 -96 -848 -112
WIRE -688 -96 -688 -112
WIRE -576 -96 -576 -128
WIRE -848 -16 -848 -32
WIRE -688 -16 -688 -32
WIRE -416 -16 -416 -48
WIRE -288 -16 -288 -32
WIRE -1216 16 -1216 -112
WIRE -576 16 -576 -16
WIRE -576 16 -1216 16
WIRE -576 32 -576 16
WIRE -576 128 -576 112
FLAG -416 -16 0
FLAG -576 128 0
FLAG -288 -16 0
FLAG -416 -416 0
FLAG -688 -16 0
FLAG -848 -16 0
FLAG -1184 -400 0
FLAG -1296 -160 0
FLAG -1184 -208 0
FLAG -288 -128 OUT
FLAG 192 -336 0
FLAG -96 -480 CLIM
IOPIN -96 -480 In
FLAG 48 -336 0
FLAG 48 -624 CLIM2
IOPIN 48 -624 In
FLAG -864 -304 CLIM
IOPIN -864 -304 In
FLAG -672 -304 CLIM2
IOPIN -672 -304 In
SYMBOL nmos -624 -288 R0
SYMATTR InstName M1
SYMATTR Value IRFZ24
SYMBOL cap -432 -112 R0
SYMATTR InstName C1
SYMATTR Value 24µ
SYMBOL res -592 -112 R0
SYMATTR InstName R1
SYMATTR Value 1.727K
SYMBOL res -592 16 R0
SYMATTR InstName R2
SYMATTR Value 1K
SYMBOL voltage -416 -528 R0
WINDOW 123 0 0 Left 2
WINDOW 39 0 0 Left 2
SYMATTR InstName V1
SYMATTR Value 12
SYMBOL cap -864 -96 R0
SYMATTR InstName C2
SYMATTR Value 10p
SYMBOL res -816 -96 R270
WINDOW 0 32 56 VTop 2
WINDOW 3 0 56 VBottom 2
SYMATTR InstName R3
SYMATTR Value 7.5K
SYMBOL cap -704 -96 R0
SYMATTR InstName C3
SYMATTR Value 1000p
SYMBOL voltage -1296 -288 R0
WINDOW 123 0 0 Left 2
WINDOW 39 0 0 Left 2
SYMATTR InstName V2
SYMATTR Value 20
SYMBOL LT1575 -1024 -256 R0
SYMATTR InstName U1
SYMBOL res -592 -544 R0
SYMATTR InstName R4
SYMATTR Value 0.05
SYMBOL voltage 192 -512 R0
WINDOW 123 0 0 Left 2
WINDOW 39 0 0 Left 2
SYMATTR InstName V3
SYMATTR Value PULSE(0 8 0 100m)
SYMBOL res 32 -480 R0
SYMATTR InstName R6
SYMATTR Value 5
SYMBOL res -560 -352 R90
WINDOW 0 0 56 VBottom 2
WINDOW 3 32 56 VTop 2
SYMATTR InstName R5
SYMATTR Value 1k
SYMBOL res -304 -128 R0
SYMATTR InstName R7
SYMATTR Value 1
SYMBOL res -640 -544 R90
WINDOW 0 0 56 VBottom 2
WINDOW 3 32 56 VTop 2
SYMATTR InstName R8
SYMATTR Value 1k
SYMBOL res 32 -608 R0
SYMATTR InstName R9
SYMATTR Value 130
SYMBOL res 0 -496 R90
WINDOW 0 0 56 VBottom 2
WINDOW 3 32 56 VTop 2
SYMATTR InstName R10
SYMATTR Value 3
TEXT -272 56 Left 2 !.tran 100m
