Version 4
SHEET 1 1412 1620
WIRE -1040 64 -1120 64
WIRE -464 64 -944 64
WIRE 0 64 -464 64
WIRE 0 96 0 64
WIRE -1440 160 -1568 160
WIRE -1200 160 -1440 160
WIRE -672 160 -1200 160
WIRE -656 160 -672 160
WIRE -464 160 -464 64
WIRE -464 160 -560 160
WIRE -416 160 -464 160
WIRE -288 160 -416 160
WIRE -416 176 -416 160
WIRE -288 176 -288 160
WIRE -1440 208 -1440 160
WIRE -1120 256 -1120 64
WIRE -992 256 -1120 256
WIRE -672 256 -672 160
WIRE -672 256 -704 256
WIRE -416 272 -416 240
WIRE -288 272 -288 256
WIRE -1024 320 -1024 112
WIRE -992 320 -1024 320
WIRE -640 320 -640 208
WIRE -640 320 -704 320
WIRE -64 336 -64 320
WIRE -64 336 -144 336
WIRE -64 352 -64 336
WIRE 80 352 80 320
WIRE 224 352 80 352
WIRE 320 352 224 352
WIRE -144 368 -144 336
WIRE -1440 384 -1440 288
WIRE -1328 384 -1440 384
WIRE -1120 384 -1120 256
WIRE -1120 384 -1328 384
WIRE -992 384 -1056 384
WIRE -464 384 -464 160
WIRE -464 384 -704 384
WIRE 80 384 80 352
WIRE 224 400 224 352
WIRE 320 400 320 352
WIRE -992 448 -1024 448
WIRE -640 448 -704 448
WIRE -144 464 -144 432
WIRE -64 464 -64 432
WIRE -64 464 -144 464
WIRE -1056 480 -1056 384
WIRE -1024 496 -1024 448
WIRE -800 496 -1024 496
WIRE 80 496 80 464
WIRE 224 496 224 464
WIRE 224 496 80 496
WIRE 320 496 320 464
WIRE 320 496 224 496
WIRE -1200 528 -1200 160
WIRE -1136 528 -1200 528
WIRE -640 528 -640 448
WIRE -640 528 -1040 528
WIRE -800 560 -800 496
WIRE -64 576 -64 464
WIRE 80 576 80 496
WIRE -1328 608 -1328 384
WIRE -880 608 -1328 608
WIRE -640 608 -640 528
WIRE -640 608 -784 608
WIRE -608 608 -640 608
WIRE -1280 928 -1328 928
WIRE -1152 928 -1216 928
WIRE -1104 928 -1152 928
WIRE -976 928 -1040 928
WIRE -736 928 -976 928
WIRE -1152 944 -1152 928
WIRE -976 960 -976 928
WIRE -1568 1040 -1568 160
WIRE -1152 1040 -1152 1008
WIRE -1152 1040 -1568 1040
WIRE -976 1040 -976 1024
WIRE -976 1040 -1152 1040
WIRE -736 1056 -736 928
WIRE -800 1296 -800 1280
WIRE -800 1296 -880 1296
WIRE -800 1312 -800 1296
WIRE -656 1312 -656 1280
WIRE -512 1312 -656 1312
WIRE -416 1312 -512 1312
WIRE -880 1328 -880 1296
WIRE -656 1344 -656 1312
WIRE -512 1360 -512 1312
WIRE -416 1360 -416 1312
WIRE -880 1424 -880 1392
WIRE -800 1424 -800 1392
WIRE -800 1424 -880 1424
WIRE -656 1456 -656 1424
WIRE -512 1456 -512 1424
WIRE -512 1456 -656 1456
WIRE -416 1456 -416 1424
WIRE -416 1456 -512 1456
WIRE -800 1536 -800 1424
WIRE -656 1536 -656 1456
FLAG -656 1536 0
FLAG -800 1536 0
FLAG -288 160 OUT
FLAG -416 272 0
FLAG -608 608 0
FLAG -288 272 0
FLAG 112 1600 0
FLAG -656 1312 +24V
FLAG 80 576 0
FLAG -64 576 0
SYMBOL cap -1216 912 R90
WINDOW 0 0 32 VBottom 2
WINDOW 3 32 32 VTop 2
SYMATTR InstName C2
SYMATTR Value 200µ
SYMATTR SpiceLine Rser=0.1
SYMBOL cap -960 1024 R180
WINDOW 0 24 56 Left 2
WINDOW 3 24 8 Left 2
SYMATTR InstName C3
SYMATTR Value 200µ
SYMATTR SpiceLine Rser=0.1
SYMBOL schottky -1136 1008 R180
WINDOW 0 24 54 Left 2
WINDOW 3 24 0 Left 2
SYMATTR InstName D5
SYMATTR Value BAT54
SYMATTR Description Diode
SYMATTR Type diode
SYMBOL schottky -1104 944 R270
WINDOW 0 32 32 VTop 2
WINDOW 3 0 32 VBottom 2
SYMATTR InstName D6
SYMATTR Value BAT54
SYMATTR Description Diode
SYMATTR Type diode
SYMBOL bi -656 1344 R0
SYMATTR InstName B2
SYMATTR Value I=0.04
SYMBOL PowerProducts\\LT3082 -736 1168 R0
SYMATTR InstName U1
SYMBOL res -816 1296 R0
SYMATTR InstName R1
SYMATTR Value 2400k
SYMBOL cap -528 1360 R0
SYMATTR InstName C4
SYMATTR Value 200µ
SYMATTR SpiceLine Rser=0.05
SYMBOL cap -432 176 R0
SYMATTR InstName C5
SYMATTR Value 20000µ
SYMBOL voltage -1440 192 R0
WINDOW 123 24 138 Left 2
WINDOW 39 24 117 Left 2
SYMATTR SpiceLine Rser=.01
SYMATTR InstName V2
SYMATTR Value SINE(0 18 50)
SYMBOL LT4320 -848 352 R0
SYMATTR InstName U2
SYMBOL nmos -944 112 M270
WINDOW 0 70 46 VLeft 2
WINDOW 3 -13 66 VLeft 2
SYMATTR InstName Q1
SYMATTR Value IPP084N06L3
SYMBOL nmos -560 208 M270
WINDOW 0 64 46 VLeft 2
WINDOW 3 -17 70 VLeft 2
SYMATTR InstName Q2
SYMATTR Value IPP084N06L3
SYMBOL nmos -880 560 M90
WINDOW 0 -15 65 VLeft 2
WINDOW 3 57 58 VTop 2
SYMATTR InstName Q3
SYMATTR Value IPP084N06L3
SYMBOL nmos -1136 480 M90
WINDOW 0 -12 62 VLeft 2
WINDOW 3 52 46 VTop 2
SYMATTR InstName Q4
SYMATTR Value IPP084N06L3
SYMBOL bi -288 176 R0
SYMATTR InstName B3
SYMATTR Value I=4
SYMBOL cap -896 1328 R0
SYMATTR InstName C1
SYMATTR Value 0.05µ
SYMBOL cap -432 1360 R0
SYMATTR InstName C6
SYMATTR Value 10µ
SYMATTR SpiceLine Rser=0.002
SYMBOL bi 80 384 R0
SYMATTR InstName B1
SYMATTR Value I=0.1
SYMBOL PowerProducts\\LT3082 0 208 R0
SYMATTR InstName U3
SYMBOL res -80 336 R0
SYMATTR InstName R2
SYMATTR Value 330k
SYMBOL cap 208 400 R0
SYMATTR InstName C7
SYMATTR Value 200µ
SYMATTR SpiceLine Rser=0.05
SYMBOL cap -160 368 R0
SYMATTR InstName C8
SYMATTR Value 0.05µ
SYMBOL cap 304 400 R0
SYMATTR InstName C9
SYMATTR Value 10µ
SYMATTR SpiceLine Rser=0.002
TEXT -360 544 Left 2 !.tran 1 uic
