Version 4
SHEET 1 1412 2600
WIRE -1040 64 -1120 64
WIRE -464 64 -944 64
WIRE -1440 160 -1568 160
WIRE -1200 160 -1440 160
WIRE -672 160 -1200 160
WIRE -656 160 -672 160
WIRE -464 160 -464 64
WIRE -464 160 -560 160
WIRE -416 160 -464 160
WIRE -352 160 -416 160
WIRE -288 160 -352 160
WIRE 48 160 -288 160
WIRE -416 176 -416 160
WIRE 48 176 48 160
WIRE 64 176 48 176
WIRE 80 176 64 176
WIRE -1440 208 -1440 160
WIRE 64 208 64 176
WIRE -1120 256 -1120 64
WIRE -992 256 -1120 256
WIRE -672 256 -672 160
WIRE -672 256 -704 256
WIRE -416 272 -416 240
WIRE -1024 320 -1024 112
WIRE -992 320 -1024 320
WIRE -640 320 -640 208
WIRE -640 320 -704 320
WIRE -1440 384 -1440 288
WIRE -1328 384 -1440 384
WIRE -1120 384 -1120 256
WIRE -1120 384 -1328 384
WIRE -992 384 -1056 384
WIRE -464 384 -464 160
WIRE -464 384 -704 384
WIRE -992 448 -1024 448
WIRE -640 448 -704 448
WIRE 0 448 0 432
WIRE 0 448 -80 448
WIRE 0 464 0 448
WIRE 144 464 144 432
WIRE 144 464 64 464
WIRE 288 464 144 464
WIRE 384 464 288 464
WIRE -1056 480 -1056 384
WIRE -80 480 -80 448
WIRE -1024 496 -1024 448
WIRE -800 496 -1024 496
WIRE 144 496 144 464
WIRE 288 512 288 464
WIRE 384 512 384 464
WIRE -1200 528 -1200 160
WIRE -1136 528 -1200 528
WIRE -640 528 -640 448
WIRE -640 528 -1040 528
WIRE -800 560 -800 496
WIRE -80 576 -80 544
WIRE 0 576 0 544
WIRE 0 576 -80 576
WIRE -1328 608 -1328 384
WIRE -880 608 -1328 608
WIRE -640 608 -640 528
WIRE -640 608 -784 608
WIRE -608 608 -640 608
WIRE 144 608 144 576
WIRE 288 608 288 576
WIRE 288 608 144 608
WIRE 384 608 384 576
WIRE 384 608 288 608
WIRE 0 688 0 576
WIRE 144 688 144 608
WIRE -1440 928 -1440 384
WIRE -1408 928 -1440 928
WIRE -1280 928 -1344 928
WIRE -1184 928 -1280 928
WIRE -1008 928 -1120 928
WIRE -1568 1040 -1568 160
WIRE -1280 1040 -1280 992
WIRE -1280 1040 -1568 1040
WIRE -1008 1056 -1008 992
WIRE -512 1280 -688 1280
WIRE -64 1280 -448 1280
WIRE -1568 1408 -1568 1040
WIRE -1344 1408 -1568 1408
WIRE -1216 1408 -1280 1408
WIRE -1120 1408 -1216 1408
WIRE -944 1408 -1056 1408
WIRE -800 1408 -944 1408
WIRE -624 1408 -800 1408
WIRE -272 1408 -336 1408
WIRE -64 1408 -64 1280
WIRE -64 1408 -272 1408
WIRE 80 1408 -64 1408
WIRE 176 1408 80 1408
WIRE -64 1440 -64 1408
WIRE -800 1456 -800 1408
WIRE 80 1456 80 1408
WIRE 176 1456 176 1408
WIRE -688 1504 -688 1280
WIRE -624 1504 -688 1504
WIRE -272 1504 -272 1408
WIRE -272 1504 -336 1504
WIRE -1440 1520 -1440 928
WIRE -1216 1520 -1216 1472
WIRE -1216 1520 -1440 1520
WIRE -944 1536 -944 1472
WIRE -800 1552 -800 1520
WIRE -64 1552 -64 1520
WIRE 80 1552 80 1520
WIRE 80 1552 -64 1552
WIRE 176 1552 176 1520
WIRE 176 1552 80 1552
WIRE -480 1632 -480 1568
WIRE -64 1632 -64 1552
FLAG -352 160 OUT
FLAG -416 272 0
FLAG -608 608 0
FLAG 144 688 0
FLAG 0 688 0
FLAG -480 1632 0
FLAG -64 1632 0
FLAG -1008 1056 0
FLAG -944 1536 0
FLAG -800 1552 0
FLAG -288 240 0
SYMBOL cap -1264 992 R180
WINDOW 0 24 56 Left 2
WINDOW 3 24 8 Left 2
SYMATTR InstName C2
SYMATTR Value 1000µ
SYMATTR SpiceLine Rser=0.1
SYMBOL cap -992 992 R180
WINDOW 0 24 56 Left 2
WINDOW 3 24 8 Left 2
SYMATTR InstName C3
SYMATTR Value 1000µ
SYMATTR SpiceLine Rser=0.1
SYMBOL schottky -1184 944 R270
WINDOW 0 32 32 VTop 2
WINDOW 3 0 32 VBottom 2
SYMATTR InstName D6
SYMATTR Value BAT54
SYMATTR Description Diode
SYMATTR Type diode
SYMBOL cap -432 176 R0
SYMATTR InstName C5
SYMATTR Value 20000µ
SYMBOL voltage -1440 192 R0
WINDOW 123 24 138 Left 2
WINDOW 39 24 117 Left 2
SYMATTR SpiceLine Rser=.01
SYMATTR InstName V2
SYMATTR Value SINE(0 18 50)
SYMBOL LT4320 -848 352 R0
SYMATTR InstName U2
SYMBOL nmos -944 112 M270
WINDOW 0 70 46 VLeft 2
WINDOW 3 -13 66 VLeft 2
SYMATTR InstName Q1
SYMATTR Value IPP084N06L3
SYMBOL nmos -560 208 M270
WINDOW 0 64 46 VLeft 2
WINDOW 3 -17 70 VLeft 2
SYMATTR InstName Q2
SYMATTR Value IPP084N06L3
SYMBOL nmos -880 560 M90
WINDOW 0 -15 65 VLeft 2
WINDOW 3 57 58 VTop 2
SYMATTR InstName Q3
SYMATTR Value IPP084N06L3
SYMBOL nmos -1136 480 M90
WINDOW 0 -12 62 VLeft 2
WINDOW 3 52 46 VTop 2
SYMATTR InstName Q4
SYMATTR Value IPP084N06L3
SYMBOL bi 144 496 R0
SYMATTR InstName B1
SYMATTR Value I=0.1
SYMBOL PowerProducts\\LT3082 64 320 R0
SYMATTR InstName U3
SYMBOL res -16 448 R0
SYMATTR InstName R2
SYMATTR Value 3300k
SYMBOL cap 272 512 R0
SYMATTR InstName C7
SYMATTR Value 200µ
SYMATTR SpiceLine Rser=0.05
SYMBOL cap -96 480 R0
SYMATTR InstName C8
SYMATTR Value 0.05µ
SYMBOL cap 368 512 R0
SYMATTR InstName C9
SYMATTR Value 10µ
SYMATTR SpiceLine Rser=0.002
SYMBOL PowerProducts\\LT1964-BYP -480 1456 R0
SYMATTR InstName U4
SYMBOL res -80 1424 R0
SYMATTR InstName R3
SYMATTR Value 200
SYMBOL cap 96 1520 R180
WINDOW 0 24 56 Left 2
WINDOW 3 24 8 Left 2
SYMATTR InstName C4
SYMATTR Value 200µ
SYMATTR SpiceLine Rser=0.1
SYMBOL diode -1408 944 R270
WINDOW 0 32 32 VTop 2
WINDOW 3 0 32 VBottom 2
SYMATTR InstName D3
SYMBOL cap -1200 1472 R180
WINDOW 0 24 56 Left 2
WINDOW 3 24 8 Left 2
SYMATTR InstName C6
SYMATTR Value 200µ
SYMATTR SpiceLine Rser=0.1
SYMBOL cap -928 1472 R180
WINDOW 0 24 56 Left 2
WINDOW 3 24 8 Left 2
SYMATTR InstName C10
SYMATTR Value 200µ
SYMATTR SpiceLine Rser=0.1
SYMBOL diode -1056 1392 R90
WINDOW 0 0 32 VBottom 2
WINDOW 3 32 32 VTop 2
SYMATTR InstName D1
SYMATTR Value 1N4148
SYMBOL diode -1280 1392 R90
WINDOW 0 0 32 VBottom 2
WINDOW 3 32 32 VTop 2
SYMATTR InstName D2
SYMATTR Value 1N4148
SYMBOL cap -448 1264 R90
WINDOW 0 0 32 VBottom 2
WINDOW 3 32 32 VTop 2
SYMATTR InstName C1
SYMATTR Value 10n
SYMATTR SpiceLine Rser=0.004
SYMBOL cap 160 1456 R0
SYMATTR InstName C11
SYMATTR Value 10µ
SYMATTR SpiceLine Rser=0.004
SYMBOL cap -816 1456 R0
SYMATTR InstName C12
SYMATTR Value 10µ
SYMATTR SpiceLine Rser=0.004
SYMBOL res -304 144 R0
SYMATTR InstName R1
SYMATTR Value 400
TEXT -360 544 Left 2 !.tran 1 uic
